
     RDKit          3D

 31 35  0  0  0  0  0  0  0  0999 V2000
    8.8030   11.7890   33.9290 O   0  0  0  0  0  0  0  0  0  0  0  0
   13.0750   10.4170   25.8780 C   0  0  0  0  0  0  0  0  0  0  0  0
   10.7540   11.7550   30.7120 C   0  0  0  0  0  0  0  0  0  0  0  0
   10.4840   11.9700   32.2220 C   0  0  0  0  0  0  0  0  0  0  0  0
   14.2230    9.1700   19.1380 C   0  0  0  0  0  0  0  0  0  0  0  0
   12.3710   10.9930   28.8580 C   0  0  0  0  0  0  0  0  0  0  0  0
   10.8820   12.5960   25.1350 C   0  0  0  0  0  0  0  0  0  0  0  0
   12.2460    9.9000   20.5700 C   0  0  0  0  0  0  0  0  0  0  0  0
   11.6380   10.4630   26.4500 C   0  0  0  0  0  0  0  0  0  0  0  0
    9.5970   12.0500   29.6060 C   0  0  0  0  0  0  0  0  0  0  0  0
   12.8390   10.2180   24.3490 C   0  0  0  0  0  0  0  0  0  0  0  0
    9.8300   11.1100   28.3370 C   0  0  0  0  0  0  0  0  0  0  0  0
   11.3650   11.0210   27.8830 C   0  0  0  0  0  0  0  0  0  0  0  0
    8.1640   11.7490   30.2030 C   0  0  0  0  0  0  0  0  0  0  0  0
    9.0450   11.4990   32.5900 C   0  0  0  0  0  0  0  0  0  0  0  0
    9.6560   13.5570   29.1900 C   0  0  0  0  0  0  0  0  0  0  0  0
    7.9980   12.2190   31.6910 C   0  0  0  0  0  0  0  0  0  0  0  0
   12.7960    8.7870   19.6240 C   0  0  0  0  0  0  0  0  0  0  0  0
   12.0260   11.3000   30.3420 C   0  0  0  0  0  0  0  0  0  0  0  0
   12.3160    7.2450   17.5850 C   0  0  0  0  0  0  0  0  0  0  0  0
   11.2790   10.2100   24.1060 C   0  0  0  0  0  0  0  0  0  0  0  0
   10.7030   11.0250   25.3410 C   0  0  0  0  0  0  0  0  0  0  0  0
    8.8000   11.3310   27.1340 C   0  0  0  0  0  0  0  0  0  0  0  0
    9.2300   10.6400   25.7780 C   0  0  0  0  0  0  0  0  0  0  0  0
   11.3850    9.5990   17.5690 C   0  0  0  0  0  0  0  0  0  0  0  0
   11.7850    8.4060   18.4730 C   0  0  0  0  0  0  0  0  0  0  0  0
   10.5550    7.9706   19.2874 C   0  0  0  0  0  0  0  0  0  0  0  0
   11.6304    9.3598   21.7578 C   0  0  0  0  0  0  0  0  0  0  0  0
   10.7898    8.8045   24.1174 C   0  0  0  0  0  0  0  0  0  0  0  0
   11.2236    8.1819   22.6833 C   0  0  0  0  0  0  0  0  0  0  0  0
   11.1329   10.4105   22.6202 C   0  0  0  0  0  0  0  0  0  0  0  0
 14 17  1  0
  1 15  1  0
 15 17  1  0
  4 15  1  0
  3  4  1  0
  3 19  1  0
  3 10  1  0
  6 19  1  0
  6 13  1  0
 12 13  1  0
 12 23  1  0
 10 14  1  0
 10 12  1  0
 10 16  1  0
 23 24  1  0
 22 24  1  0
  9 13  1  0
  9 22  1  0
  2  9  1  0
  2 11  1  0
 11 21  1  0
 21 22  1  0
  7 22  1  0
  8 18  1  0
 18 26  1  0
 25 26  1  0
 20 26  1  0
  5 18  1  0
 26 27  1  0
  8 28  1  0
 21 29  1  0
 28 30  1  0
 29 30  1  0
 21 31  1  0
 28 31  2  0
M  END
$$$$
