obj01
  PyMOL2.4          3D                             0

 57 60  0  0  0  0  0  0  0  0999 V2000
   52.0380   75.5420   26.6960 C   0  0  0  0  0  0  0  0  0  0  0  0
   52.0610   76.3910   27.9710 C   0  0  0  0  0  0  0  0  0  0  0  0
   53.4730   76.7230   28.3980 C   0  0  0  0  0  0  0  0  0  0  0  0
   54.3700   75.9820   29.1690 C   0  0  0  0  0  0  0  0  0  0  0  0
   55.5500   76.5390   29.3420 N   0  0  0  0  0  0  0  0  0  0  0  0
   55.4850   77.6990   28.6400 N   0  0  0  0  0  0  0  0  0  0  0  0
   54.2200   77.8800   28.0740 C   0  0  0  0  0  0  0  0  0  0  0  0
   53.9310   78.9750   27.3710 N   0  0  0  0  0  0  0  0  0  0  0  0
   54.9050   79.9080   27.1640 C   0  0  0  0  0  0  0  0  0  0  0  0
   56.1970   79.7440   27.6790 C   0  0  0  0  0  0  0  0  0  0  0  0
   56.4930   78.6140   28.4490 C   0  0  0  0  0  0  0  0  0  0  0  0
   57.7550   78.3810   29.0050 N   0  0  0  0  0  0  0  0  0  0  0  0
   58.8620   79.3190   28.9070 C   0  0  0  0  0  0  0  0  0  0  0  0
   58.7850   80.4160   29.9530 C   0  0  0  0  0  0  0  0  0  0  0  0
   58.6410   80.1100   31.3120 C   0  0  0  0  0  0  0  0  0  0  0  0
   58.5830   81.1350   32.2590 C   0  0  0  0  0  0  0  0  0  0  0  0
   58.6830   82.4590   31.8290 C   0  0  0  0  0  0  0  0  0  0  0  0
   58.8450   82.7220   30.5150 N   0  3  0  0  0  0  0  0  0  0  0  0
   58.9040   81.7540   29.5770 C   0  0  0  0  0  0  0  0  0  0  0  0
   58.9440   83.9200   30.1450 O   0  5  0  0  0  0  0  0  0  0  0  0
   54.5300   81.0450   26.4410 N   0  0  0  0  0  0  0  0  0  0  0  0
   55.4780   81.9790   25.8020 C   0  0  0  0  0  0  0  0  0  0  0  0
   55.1700   83.4460   26.1630 C   0  0  0  0  0  0  0  0  0  0  0  0
   53.7270   83.8200   25.7920 C   0  0  0  0  0  0  0  0  0  0  0  0
   52.7480   82.7790   26.3540 C   0  0  0  0  0  0  0  0  0  0  0  0
   53.1430   81.3230   25.9900 C   0  0  0  0  0  0  0  0  0  0  0  0
   52.8060   80.9550   24.5200 C   0  0  0  0  0  0  0  0  0  0  0  0
   53.2070   79.5350   24.0740 C   0  0  0  0  0  0  0  0  0  0  0  0
   52.5700   78.5450   24.8480 O   0  0  0  0  0  0  0  0  0  0  0  0
   57.9030   77.5340   29.5410 H   0  0  0  0  0  0  0  0  0  0  0  0
   52.9800   78.5470   25.7210 H   0  0  0  0  0  0  0  0  0  0  0  0
   54.1490   75.0240   29.6050 H   0  0  0  0  0  0  0  0  0  0  0  0
   56.9530   80.4960   27.5310 H   0  0  0  0  0  0  0  0  0  0  0  0
   58.5720   79.0820   31.6270 H   0  0  0  0  0  0  0  0  0  0  0  0
   58.4590   80.9090   33.3080 H   0  0  0  0  0  0  0  0  0  0  0  0
   58.6410   83.3120   32.4920 H   0  0  0  0  0  0  0  0  0  0  0  0
   59.0410   82.0830   28.5590 H   0  0  0  0  0  0  0  0  0  0  0  0
   52.4670   80.7150   26.5870 H   0  0  0  0  0  0  0  0  0  0  0  0
   51.0220   75.3420   26.3590 H   0  0  0  0  0  0  0  0  0  0  0  0
   52.5710   76.0260   25.8790 H   0  0  0  0  0  0  0  0  0  0  0  0
   52.4990   74.5790   26.8840 H   0  0  0  0  0  0  0  0  0  0  0  0
   51.5260   75.8530   28.7480 H   0  0  0  0  0  0  0  0  0  0  0  0
   51.4990   77.3100   27.8190 H   0  0  0  0  0  0  0  0  0  0  0  0
   58.9540   79.7270   27.9000 H   0  0  0  0  0  0  0  0  0  0  0  0
   59.7560   78.7440   29.0980 H   0  0  0  0  0  0  0  0  0  0  0  0
   55.4140   81.8450   24.7250 H   0  0  0  0  0  0  0  0  0  0  0  0
   56.5160   81.7670   26.0420 H   0  0  0  0  0  0  0  0  0  0  0  0
   55.8690   84.1100   25.6540 H   0  0  0  0  0  0  0  0  0  0  0  0
   55.3290   83.5990   27.2320 H   0  0  0  0  0  0  0  0  0  0  0  0
   53.6230   83.8640   24.7080 H   0  0  0  0  0  0  0  0  0  0  0  0
   53.4820   84.8180   26.1550 H   0  0  0  0  0  0  0  0  0  0  0  0
   51.7360   82.9970   26.0130 H   0  0  0  0  0  0  0  0  0  0  0  0
   52.7210   82.8780   27.4400 H   0  0  0  0  0  0  0  0  0  0  0  0
   53.2770   81.6680   23.8460 H   0  0  0  0  0  0  0  0  0  0  0  0
   51.7350   81.0840   24.3620 H   0  0  0  0  0  0  0  0  0  0  0  0
   54.2850   79.3930   24.1430 H   0  0  0  0  0  0  0  0  0  0  0  0
   52.9280   79.3830   23.0320 H   0  0  0  0  0  0  0  0  0  0  0  0
  1  2  1  0  0  0  0
  1 39  1  0  0  0  0
  1 40  1  0  0  0  0
  1 41  1  0  0  0  0
  2  3  1  0  0  0  0
  2 42  1  0  0  0  0
  2 43  1  0  0  0  0
  3  4  4  0  0  0  0
  3  7  4  0  0  0  0
  4  5  4  0  0  0  0
  4 32  1  0  0  0  0
  5  6  4  0  0  0  0
  6  7  4  0  0  0  0
  6 11  4  0  0  0  0
  7  8  4  0  0  0  0
  8  9  4  0  0  0  0
  9 21  1  0  0  0  0
  9 10  4  0  0  0  0
 10 11  4  0  0  0  0
 10 33  1  0  0  0  0
 11 12  1  0  0  0  0
 12 13  1  0  0  0  0
 12 30  1  0  0  0  0
 13 14  1  0  0  0  0
 13 44  1  0  0  0  0
 13 45  1  0  0  0  0
 14 19  4  0  0  0  0
 14 15  4  0  0  0  0
 15 16  4  0  0  0  0
 15 34  1  0  0  0  0
 16 35  1  0  0  0  0
 16 17  4  0  0  0  0
 17 18  4  0  0  0  0
 17 36  1  0  0  0  0
 18 19  4  0  0  0  0
 18 20  1  0  0  0  0
 19 37  1  0  0  0  0
 21 22  1  0  0  0  0
 22 23  1  0  0  0  0
 22 46  1  0  0  0  0
 22 47  1  0  0  0  0
 23 48  1  0  0  0  0
 23 49  1  0  0  0  0
 23 24  1  0  0  0  0
 24 25  1  0  0  0  0
 24 50  1  0  0  0  0
 24 51  1  0  0  0  0
 25 52  1  0  0  0  0
 25 53  1  0  0  0  0
 21 26  1  0  0  0  0
 25 26  1  0  0  0  0
 26 27  1  0  0  0  0
 26 38  1  0  0  0  0
 27 54  1  0  0  0  0
 27 55  1  0  0  0  0
 27 28  1  0  0  0  0
 28 29  1  0  0  0  0
 28 56  1  0  0  0  0
 28 57  1  0  0  0  0
 29 31  1  0  0  0  0
M  END
$$$$
